Version 4
SHEET 1 880 968
WIRE 400 80 32 80
WIRE 96 128 64 128
WIRE 64 160 64 128
WIRE 32 192 32 80
WIRE 96 192 32 192
WIRE 480 192 480 144
WIRE 480 192 320 192
WIRE 608 192 480 192
WIRE -16 256 -96 256
WIRE 96 256 -16 256
WIRE 352 256 320 256
WIRE 352 272 352 256
WIRE 400 272 400 80
WIRE 400 272 352 272
WIRE 480 272 400 272
WIRE 608 272 608 256
WIRE 608 272 480 272
WIRE 352 320 320 320
WIRE 480 320 480 272
WIRE 352 352 352 320
WIRE 480 416 480 384
WIRE 352 464 352 416
FLAG 64 -32 0
FLAG 64 -112 vdd
FLAG 320 128 vdd
FLAG 96 320 vdd
FLAG 480 64 vdd
FLAG 352 464 0
FLAG 64 160 0
FLAG 480 416 0
FLAG -16 256 Vout
SYMBOL Misc\\NE555 208 224 R0
SYMATTR InstName U1
SYMBOL voltage 64 -128 R0
WINDOW 123 0 0 Left 0
WINDOW 39 0 0 Left 0
SYMATTR InstName V1
SYMATTR Value 12
SYMBOL res 464 48 R0
SYMATTR InstName R1
SYMATTR Value 110k
SYMBOL res 464 176 R0
SYMATTR InstName R2
SYMATTR Value 60k
SYMBOL diode 592 192 R0
SYMATTR InstName D1
SYMBOL cap 336 352 R0
SYMATTR InstName C1
SYMATTR Value 100n
SYMBOL cap 464 320 R0
SYMATTR InstName C2
SYMATTR Value 10n
TEXT -98 488 Left 2 !.tran 0.01
