Version 4
SHEET 1 880 968
WIRE 96 128 64 128
WIRE 64 160 64 128
WIRE -48 192 -208 192
WIRE 96 192 -48 192
WIRE 400 192 320 192
WIRE 528 192 480 192
WIRE 544 192 528 192
WIRE -16 256 -96 256
WIRE 96 256 -16 256
WIRE 480 256 320 256
WIRE -208 288 -208 192
WIRE -96 288 -96 256
WIRE -208 416 -208 352
WIRE -96 416 -96 368
WIRE -16 480 -16 256
WIRE 224 480 -16 480
WIRE 176 528 128 528
WIRE 288 528 256 528
WIRE 128 608 128 528
WIRE 288 608 288 528
WIRE -48 768 -48 192
WIRE 128 768 128 672
WIRE 128 768 -48 768
WIRE 208 768 128 768
WIRE 288 768 288 672
WIRE 288 768 208 768
WIRE 208 944 208 768
WIRE 480 944 480 256
WIRE 480 944 208 944
FLAG 64 160 0
FLAG -496 272 0
FLAG -496 192 vdd
FLAG 320 128 vdd
FLAG 528 192 vdd
FLAG -96 416 0
FLAG -208 416 0
FLAG 96 320 vdd
SYMBOL Misc\\NE555 208 224 R0
SYMATTR InstName U1
SYMBOL voltage -496 176 R0
WINDOW 123 0 0 Left 0
WINDOW 39 0 0 Left 0
SYMATTR InstName V1
SYMATTR Value 12
SYMBOL res 496 176 R90
WINDOW 0 0 56 VBottom 2
WINDOW 3 32 56 VTop 2
SYMATTR InstName R1
SYMATTR Value 1k
SYMBOL res -112 272 R0
SYMATTR InstName R2
SYMATTR Value 1k
SYMBOL cap -224 288 R0
SYMATTR InstName C1
SYMATTR Value 100n
SYMBOL diode 112 608 R0
SYMATTR InstName D1
SYMBOL diode 304 672 R180
WINDOW 0 24 64 Left 2
WINDOW 3 24 0 Left 2
SYMATTR InstName D2
SYMBOL pot 160 544 R270
SYMATTR InstName U2
SYMATTR Value Rtot=10k wiper=0.5
TEXT -528 952 Left 2 !.tran 10
TEXT -512 912 Left 2 !.include pot.sub
